.model 2N6659 NMOS (Level=3 Gamma=0 Delta=0 Eta=0 Theta=0 Kappa=0.2 Vmax=0 Xj=0
Tox=2u Uo=600 Phi=.6 Kp=1.047u W=.32 L=2u Rs=20m Vto=1.8 Rd=.4672 Rds=3.5MEG
Cgso=1.885p Cgdo=7.564p Cbd=118p Mj=.5 Pb=.8 Fc=.5 Rg=209.5 Is=10f N=1 Rb=1m)
.model 2N6660 NMOS (Level=3 Gamma=0 Delta=0 Eta=0 Theta=0 Kappa=0.2 Vmax=0 Xj=0
Tox=2u Uo=600 Phi=.6 Kp=1.047u W=.32 L=2u Rs=20m Vto=1.8 Rd=.4672 Rds=6MEG
Cgso=1.885p Cgdo=7.564p Cbd=118p Mj=.5 Pb=.8 Fc=.5 Rg=209.5 Is=10f N=1 Rb=1m)
.model 2N6661 NMOS (Level=3 Gamma=0 Delta=0 Eta=0 Theta=0 Kappa=0.2 Vmax=0 Xj=0
Tox=2u Uo=600 Phi=.6 Kp=1.05u W=.18 L=2u Rs=20m Vto=2 Rd=0 Rds=9MEG Cgso=15.45p
Cgdo=8.947p Cbd=108.7p Mj=.5 Pb=.8 Fc=.5 Rg=209.5 Is=10f N=1 Rb=1m)
.model 2N6755 NMOS (Level=3 Gamma=0 Delta=0 Eta=0 Theta=0 Kappa=0.2 Vmax=0 Xj=0
Tox=100n Uo=600 Phi=.6 Rs=.1207 Kp=21.35u W=1.1 L=2u Vto=3.143 Rd=64.68m Rds=600K
Cbd=1.273n Pb=.8 Mj=.5 Fc=.5 Cgso=729.7p Cgdo=310.4p Rg=5.839 Is=44.21f N=1
Tt=370n)
.model 2N6756 NMOS (Level=3 Gamma=0 Delta=0 Eta=0 Theta=0 Kappa=0.2 Vmax=0 Xj=0
Tox=100n Uo=600 Phi=.6 Rs=.1207 Kp=21.35u W=1.1 L=2u Vto=3.143 Rd=4.68m Rds=1MEG
Cbd=1.273n Pb=.8 Mj=.5 Fc=.5 Cgso=679.6p Cgdo=197.4p Rg=9.781 Is=4.345f N=1
Tt=348n)
.model 2N6757 NMOS (Level=3 Gamma=0 Delta=0 Eta=0 Theta=0 Kappa=0.2 Vmax=0 Xj=0
Tox=100n Uo=600 Phi=.6 Rs=.1145 Kp=19.85u W=1.1 L=2u Vto=3.391 Rd=.2702 Rds=1.5MEG
Cbd=1.068n Pb=.8 Mj=.5 Fc=.5 Cgso=2.819n Cgdo=117p Rg=2.941 Is=270.5p N=1 Tt=1150n)
.model 2N6758 NMOS (Level=3 Gamma=0 Delta=0 Eta=0 Theta=0 Kappa=0.2 Vmax=0 Xj=0
Tox=100n Uo=600 Phi=.6 Rs=.1145 Kp=19.85u W=1.1 L=2u Vto=3.391 Rd=.1199 Rds=2MEG
Cbd=1.068n Pb=.8 Mj=.5 Fc=.5 Cgso=2.32n Cgdo=68.35p Rg=6.086 Is=809.2f N=1 Tt=985n)
.model 2N6759 NMOS (Level=3 Gamma=0 Delta=0 Eta=0 Theta=0 Kappa=0.2 Vmax=0 Xj=0
Tox=100n Uo=600 Phi=.6 Rs=.1118 Kp=20.77u W=.92 L=2u Vto=3.179 Rd=.872 Rds=3.5MEG
Cbd=611.5p Pb=.8 Mj=.5 Fc=.5 Cgso=1.595n Cgdo=219.6p Rg=.8404 Is=1.361n N=1
Tt=1400n)
.model 2N6760 NMOS (Level=3 Gamma=0 Delta=0 Eta=0 Theta=0 Kappa=0.2 Vmax=0 Xj=0
Tox=100n Uo=600 Phi=.6 Rs=.1118 Kp=20.77u W=.92 L=2u Vto=3.179 Rd=.6718 Rds=4MEG
Cbd=611.5p Pb=.8 Mj=.5 Fc=.5 Cgso=1.623n Cgdo=191.7p Rg=1.314 Is=4.097p N=1
Tt=1285n)
.model 2N6761 NMOS (Level=3 Gamma=0 Delta=0 Eta=0 Theta=0 Kappa=0.2 Vmax=0 Xj=0
Tox=100n Uo=600 Phi=.6 Rs=98.25m Kp=20.62u W=.38 L=2u Vto=3.166 Rd=1.363 Rds=3.6MEG
Cbd=791.9p Pb=.8 Mj=.5 Fc=.5 Cgso=1.709n Cgdo=152.1p Rg=2.119 Is=12.62p N=1
Tt=1425n)
.model 2N6762 NMOS (Level=3 Gamma=0 Delta=0 Eta=0 Theta=0 Kappa=0.2 Vmax=0 Xj=0
Tox=100n Uo=600 Phi=.6 Rs=98.25m Kp=20.62u W=.38 L=2u Vto=3.166 Rd=1.162 Rds=4MEG
Cbd=791.9p Pb=.8 Mj=.5 Fc=.5 Cgso=1.725n Cgdo=136.7p Rg=2.685 Is=2.68p N=1
Tt=1245n)
.model 2N6763 NMOS (Level=3 Gamma=0 Delta=0 Eta=0 Theta=0 Kappa=0.2 Vmax=0 Xj=0
Tox=100n Uo=600 Phi=.6 Rs=21.3m Kp=20.52u W=.51 L=2u Vto=3.061 Rd=7.905m Rds=600K
Cbd=3.654n Pb=.8 Mj=.5 Fc=.5 Cgso=8.543n Cgdo=2.163n Rg=7.955 Is=50.08f N=1
Tt=510n)
.model 2N6764 NMOS (Level=3 Gamma=0 Delta=0 Eta=0 Theta=0 Kappa=0.2 Vmax=0 Xj=0
Tox=100n Uo=600 Phi=.6 Rs=21.3m Kp=20.52u W=.51 L=2u Vto=3.061 Rd=3.109m Rds=1MEG
Cbd=3.654n Pb=.8 Mj=.5 Fc=.5 Cgso=9.027n Cgdo=1.679n Rg=8.93 Is=41.6f N=1 Tt=495n)
.model 2N6765 NMOS (Level=3 Gamma=0 Delta=0 Eta=0 Theta=0 Kappa=0.2 Vmax=0 Xj=0
Tox=100n Uo=600 Phi=.6 Rs=48.24m Kp=20.74u W=1.8 L=2u Vto=3.064 Rd=32.96m
Rds=1.5MEG Cbd=3.662n Pb=.8 Mj=.5 Fc=.5 Cgso=1.429n Cgdo=597.5p Rg=1.545 Is=6.304p
N=1 Tt=542n)
.model 2N6766 NMOS (Level=3 Gamma=0 Delta=0 Eta=0 Theta=0 Kappa=0.2 Vmax=0 Xj=0
Tox=100n Uo=600 Phi=.6 Rs=48.24m Kp=20.74u W=1.8 L=2u Vto=3.064 Rd=12.73m Rds=2MEG
Cbd=3.662n Pb=.8 Mj=.5 Fc=.5 Cgso=1.461n Cgdo=401.8p Rg=1.545 Is=2.883p N=1
Tt=510n)
.model 2N6767 NMOS (Level=3 Gamma=0 Delta=0 Eta=0 Theta=0 Kappa=0.2 Vmax=0 Xj=0
Tox=100n Uo=600 Phi=.6 Rs=13.98m Kp=20.77u W=.82 L=2u Vto=2.885 Rd=.2691 Rds=3.5MEG
Cbd=3.018n Pb=.8 Mj=.5 Fc=.5 Cgso=9.503n Cgdo=204.5p Rg=3.164 Is=902.5p N=1
Tt=865n)
.model 2N6768 NMOS (Level=3 Gamma=0 Delta=0 Eta=0 Theta=0 Kappa=0.2 Vmax=0 Xj=0
Tox=100n Uo=600 Phi=.6 Rs=13.98m Kp=20.77u W=.82 L=2u Vto=2.885 Rd=.219 Rds=4MEG
Cbd=3.018n Pb=.8 Mj=.5 Fc=.5 Cgso=9.529n Cgdo=178.5p Rg=3.581 Is=146.3p N=1
Tt=1490n)
.model 2N6769 NMOS (Level=3 Gamma=0 Delta=0 Eta=0 Theta=0 Kappa=0.2 Vmax=0 Xj=0
Tox=100n Uo=600 Phi=.6 Rs=28.45m Kp=20.65u W=2 L=2u Vto=3.31 Rd=.3639 Rds=3.6MEG
Cbd=2.941n Pb=.8 Mj=.5 Fc=.5 Cgso=1.812n Cgdo=192.2p Rg=1.145 Is=1.354n N=1
Tt=275n)
.model 2N6770 NMOS (Level=3 Gamma=0 Delta=0 Eta=0 Theta=0 Kappa=0.2 Vmax=0 Xj=0
Tox=100n Uo=600 Phi=.6 Rs=28.45m Kp=20.65u W=2 L=2u Vto=3.31 Rd=.264 Rds=4MEG
Cbd=2.941n Pb=.8 Mj=.5 Fc=.5 Cgso=1.832n Cgdo=172.7p Rg=1.385 Is=289.1p N=1
Tt=580n)
.model 2N6782 NMOS (Level=3 Gamma=0 Delta=0 Eta=0 Theta=0 Kappa=0.2 Vmax=0 Xj=0
Tox=100n Uo=600 Phi=.6 Rs=.374 Kp=20.85u W=.28 L=2u Vto=3.201 Rd=67.85m Rds=444.4K
Cbd=371.1p Pb=.8 Mj=.5 Fc=.5 Cgso=600.5p Cgdo=62.71p Rg=36.61 Is=229.1f N=1
Tt=370n)
.model 2N6784 NMOS (Level=3 Gamma=0 Delta=0 Eta=0 Theta=0 Kappa=0.2 Vmax=0 Xj=0
Tox=100n Uo=600 Phi=.6 Rs=.3735 Kp=20.86u W=.23 L=2u Vto=3.274 Rd=.5583 Rds=888.9K
Cbd=304.5p Pb=.8 Mj=.5 Fc=.5 Cgso=517.7p Cgdo=61.68p Rg=26.49 Is=478.4f N=1
Tt=1070n)
.model 2N6786 NMOS (Level=3 Gamma=0 Delta=0 Eta=0 Theta=0 Kappa=0.2 Vmax=0 Xj=0
Tox=100n Uo=600 Phi=.6 Rs=.3444 Kp=21.11u W=.21 L=2u Vto=3.906 Rd=2.878
Rds=1.778MEG Cbd=215.7p Pb=.8 Mj=.5 Fc=.5 Cgso=1.179n Cgdo=103.2p Rg=10.06
Is=1.034n N=1 Tt=2300n)
.model 2N6788 NMOS (Level=3 Gamma=0 Delta=0 Eta=0 Theta=0 Kappa=0.2 Vmax=0 Xj=0
Tox=100n Uo=600 Phi=.6 Rs=.1555 Kp=20.84u W=.38 L=2u Vto=3.011 Rd=54.91m Rds=444.4K
Cbd=722.7p Pb=.8 Mj=.5 Fc=.5 Cgso=542p Cgdo=142.9p Rg=63.13 Is=6.454f N=1 Tt=315n)
.model 2N6790 NMOS (Level=3 Gamma=0 Delta=0 Eta=0 Theta=0 Kappa=0.2 Vmax=0 Xj=0
Tox=100n Uo=600 Phi=.6 Rs=94.5m Kp=20.41u W=.2 L=2u Vto=3.016 Rd=.3323 Rds=888.9K
Cbd=612.1p Pb=.8 Mj=.5 Fc=.5 Cgso=4.029n Cgdo=168.6p Rg=20.53 Is=62.44p N=1
Tt=810n)
.model 2N6792 NMOS (Level=3 Gamma=0 Delta=0 Eta=0 Theta=0 Kappa=0.2 Vmax=0 Xj=0
Tox=100n Uo=600 Phi=.6 Rs=.1219 Kp=20.9u W=.23 L=2u Vto=3.025 Rd=1.317 Rds=1.778MEG
Cbd=432.8p Pb=.8 Mj=.5 Fc=.5 Cgso=1.705n Cgdo=149.2p Rg=1.136 Is=590.5f N=1
Tt=1720n)
.model 2N6794 NMOS (Level=3 Gamma=0 Delta=0 Eta=0 Theta=0 Kappa=0.2 Vmax=0 Xj=0
Tox=100n Uo=600 Phi=.6 Rs=.1373 Kp=20.5u W=.2 L=2u Vto=3.32 Rd=2.288 Rds=2.222MEG
Cbd=464.2p Pb=.8 Mj=.5 Fc=.5 Cgso=1.589n Cgdo=105.2p Rg=2.722 Is=24.14p N=1
Tt=2550n)
.model 2N6796 NMOS (Level=3 Gamma=0 Delta=0 Eta=0 Theta=0 Kappa=0.2 Vmax=0 Xj=0
Tox=100n Uo=600 Phi=.6 Rs=.1049 Kp=20.65u W=.92 L=2u Vto=3.141 Rd=18.36m Rds=444.4K
Cbd=1.217n Pb=.8 Mj=.5 Fc=.5 Cgso=679.6p Cgdo=197.4p Rg=6.383 Is=3.403f N=1
Tt=308n)
.model 2N6798 NMOS (Level=3 Gamma=0 Delta=0 Eta=0 Theta=0 Kappa=0.2 Vmax=0 Xj=0
Tox=100n Uo=600 Phi=.6 Rs=.1152 Kp=20.02u W=1.1 L=2u Vto=3.054 Rd=.1208 Rds=888.9K
Cbd=928.2p Pb=.8 Mj=.5 Fc=.5 Cgso=2.32n Cgdo=68.35p Rg=1.072 Is=263.4f N=1 Tt=710n)
.model 2N6800 NMOS (Level=3 Gamma=0 Delta=0 Eta=0 Theta=0 Kappa=0.2 Vmax=0 Xj=0
Tox=100n Uo=600 Phi=.6 Rs=80.1m Kp=20.62u W=.56 L=2u Vto=3.206 Rd=.6937
Rds=1.778MEG Cbd=823.8p Pb=.8 Mj=.5 Fc=.5 Cgso=1.623n Cgdo=191.7p Rg=.7082
Is=1.334n N=1 Tt=1530n)
.model 2N6802 NMOS (Level=3 Gamma=0 Delta=0 Eta=0 Theta=0 Kappa=0.2 Vmax=0 Xj=0
Tox=100n Uo=600 Phi=.6 Rs=.1084 Kp=20.88u W=.49 L=2u Vto=3.101 Rd=1.163
Rds=2.222MEG Cbd=732p Pb=.8 Mj=.5 Fc=.5 Cgso=1.725n Cgdo=136.7p Rg=.824 Is=1.823p
N=1 Tt=2060n)
.model 2N6804 PMOS (Level=3 Gamma=0 Delta=0 Eta=0 Theta=0 Kappa=0.2 Vmax=0 Xj=0
Tox=100n Uo=300 Phi=.6 Rs=.153 Kp=10.46u W=1.2 L=2u Vto=-3.68 Rd=66.52m
Rds=444.4MEG Cbd=1.281n Pb=.8 Mj=.5 Fc=.5 Cgso=1.798n Cgdo=134.9p Rg=4.931
Is=5.477p N=3 Tt=295n)
.model 2N6806 PMOS (Level=3 Gamma=0 Delta=0 Eta=0 Theta=0 Kappa=0.2 Vmax=0 Xj=0
Tox=100n Uo=300 Phi=.6 Rs=.1722 Kp=10.45u W=2 L=2u Vto=-3.345 Rd=.5117 Rds=888.9MEG
Cbd=783.8p Pb=.8 Mj=.5 Fc=.5 Cgso=1.984n Cgdo=41.82p Rg=1.03 Is=759.7f N=4 Tt=555n)
.model 2N6845 PMOS (Level=3 Gamma=0 Delta=0 Eta=0 Theta=0 Kappa=0.2 Vmax=0 Xj=0
Tox=100n Uo=300 Phi=.6 Rs=.284 Kp=10.43u W=.68 L=2u Vto=-3.533 Rd=.1672
Rds=444.4MEG Cbd=899.2p Pb=.8 Mj=.5 Fc=.5 Cgso=2.288n Cgdo=138.5p Rg=7.701
Is=793.1f N=3 Tt=425n)
.model 2N6847 PMOS (Level=3 Gamma=0 Delta=0 Eta=0 Theta=0 Kappa=0.2 Vmax=0 Xj=0
Tox=100n Uo=300 Phi=.6 Rs=.286 Kp=10.37u W=.97 L=2u Vto=-3.661 Rd=.9789
Rds=888.9MEG Cbd=440.2p Pb=.8 Mj=.5 Fc=.5 Cgso=1.897n Cgdo=46.53p Rg=1.002
Is=279.9f N=4 Tt=900n)
.model 2N6849 PMOS (Level=3 Gamma=0 Delta=0 Eta=0 Theta=0 Kappa=0.2 Vmax=0 Xj=0
Tox=100n Uo=300 Phi=.6 Rs=.1592 Kp=10.08u W=1.5 L=2u Vto=-3.64 Rd=67.42m
Rds=444.4MEG Cbd=1.249n Pb=.8 Mj=.5 Fc=.5 Cgso=1.513n Cgdo=107.6p Rg=6.235
Is=3.275p N=3 Tt=417n)
.model 2N6851 PMOS (Level=3 Gamma=0 Delta=0 Eta=0 Theta=0 Kappa=0.2 Vmax=0 Xj=0
Tox=100n Uo=300 Phi=.6 Rs=.1181 Kp=10.32u W=.93 L=2u Vto=-3.252 Rd=.5495
Rds=888.9MEG Cbd=891.4p Pb=.8 Mj=.5 Fc=.5 Cgso=3.804n Cgdo=90.23p Rg=.9239
Is=2.072p N=4 Tt=815n)
.model 2n7000 NMOS (Level=3 Gamma=0 Delta=0 Eta=0 Theta=0 Kappa=0.2 Vmax=0 Xj=0
Tox=2u Uo=600 Phi=.6 Kp=1.073u W=.12 L=2u Rs=20m Vto=1.73 Rd=.5489 Rds=48MEG
Cgso=73.61p Cgdo=6.487p Cbd=74.46p Mj=.5 Pb=.8 Fc=.5 Rg=546.2 Is=10f N=1 Rb=1m)
.model 2N7002 VDMOS(Rg=3 Vto=1.6 Rd=0 Rs=.75 Rb=.14 Kp=.17 mtriode=1.25 Cgdmax=80p
Cgdmin=12p Cgs=50p Cjo=50p Is=.04p ksubthres=.1 mfg=Fairchild Vds=60 Ron=2 Qg=1.5n)
.model 2SJ49C VDMOS (pchan Vto=-0.08 Kp=0.6 Lambda=0.1 Rs=0.55 Rd=0.1 Rds=1e7
Cgdmax=215p Cgdmin=10p a=0.25 Cgs=900p Cjo=1200p m=0.7 VJ=2.5 IS=4.0E-06 N=2.4)
.model 2SJ102 PMOS (Level=3 Gamma=0 Delta=0 Eta=0 Theta=0 Kappa=0.2 Vmax=0 Xj=0
Tox=2u Uo=300 Phi=.6 Kp=517.6n W=.55 L=2u Rs=20m Vto=-.8464 Rd=0 Rds=50K
Cgso=266.4p Cgdo=684.2p Cbd=1.598n Mj=.5 Pb=.8 Fc=.5 Rg=43.92 Is=170.4E-18 N=.7688
Rb=51.08m)
.model 2SJ114 PMOS (Level=3 Gamma=0 Delta=0 Eta=0 Theta=0 Kappa=0.2 Vmax=0 Xj=0
Tox=2u Uo=300 Phi=.6 Kp=540.1n W=1.1 L=2u Rs=20m Vto=-.9423 Rd=0 Rds=160K
Cgso=593.2p Cgdo=250.4p Cbd=746.2p Mj=.5 Pb=.8 Fc=.5 Rg=28.78 Is=16.48n N=1.62
Rb=18.86m)
.model 2SJ115 PMOS LEVEL=3 L=2.000E-6 W=2.200 KP=520.4E-9 RS=10.00E-3 RD=.296
VTO=.6733 RDS=1.000E6 TOX=2.000E-6 CGSO=40.00E-12 CGDO=10.00E-12 CBD=1.980E-9
MJ=.4189 PB=.3905 RG=211.5 RB=1.000E-3 GAMMA=0 KAPPA=0 UO=300)
.model 2SJ116 PMOS (Level=3 Gamma=0 Delta=0 Eta=0 Theta=0 Kappa=0.2 Vmax=0 Xj=0
Tox=2u Uo=300 Phi=.6 Kp=502.5n W=1.2 L=2u Rs=20m Vto=-1.018 Rd=0 Rds=320K
Cgso=812.9p Cgdo=74.73p Cbd=909.7p Mj=.5 Pb=.8 Fc=.5 Rg=34.65 Is=138.4n N=1.777
Rb=20.43m)
.model 2SJ118 PMOS (Level=3 Gamma=0 Delta=0 Eta=0 Theta=0 Kappa=0.2 Vmax=0 Xj=0
Tox=2u Uo=300 Phi=.6 Kp=538.3n W=2 L=2u Rs=20m Vto=-3.119 Rd=.45 Rds=120K
Cgso=327.4p Cgdo=104.8p Cbd=1.305n Mj=.9848 Pb=3 Fc=.5 Rg=20.08 Is=10f N=1 Rb=1m)
.model 2SJ119 PMOS (Level=3 Gamma=0 Delta=0 Eta=0 Theta=0 Kappa=0.2 Vmax=0 Xj=0
Tox=2u Uo=300 Phi=.6 Kp=538.3n W=2 L=2u Rs=20m Vto=-3.119 Rd=.45 Rds=140K
Cgso=327.4p Cgdo=104.8p Cbd=1.305n Mj=.9848 Pb=3 Fc=.5 Rg=20.08 Is=10f N=1 Rb=1m)
.model 2SJ120 PMOS (Level=3 Gamma=0 Delta=0 Eta=0 Theta=0 Kappa=0.2 Vmax=0 Xj=0
Tox=2u Uo=300 Phi=.6 Kp=519n W=.2 L=2u Rs=20m Vto=-1.661 Rd=.2 Rds=350K Cgso=0
Cgdo=876.1p Cbd=291.4p Mj=.4645 Pb=3 Fc=.5 Rg=3.14 Is=10f N=1 Rb=1m)
.model 2SJ122 PMOS (Level=3 Gamma=0 Delta=0 Eta=0 Theta=0 Kappa=0.2 Vmax=0 Xj=0
Tox=2u Uo=300 Phi=.6 Kp=524.2n W=2.4 L=2u Rs=0 Vto=-3.251 Rd=10.56m Rds=50K
Cgso=204.1p Cgdo=230.1p Cbd=5.067n Mj=.5793 Pb=.3905 Fc=.5 Rg=5.574 Is=10E-21
N=.6205 Rb=12.98m)
.model 2SJ123 PMOS (Level=3 Gamma=0 Delta=0 Eta=0 Theta=0 Kappa=0.2 Vmax=0 Xj=0
Tox=2u Uo=300 Phi=.6 Kp=517.8n W=2.5 L=2u Rs=20m Vto=-1.567 Rd=10m Rds=70K Cgso=4p
Cgdo=1p Cbd=2.466n Mj=.4316 Pb=.3915 Fc=.5 Rg=0 Is=10f N=1 Rb=1m)
.model 2SJ128 PMOS (Level=3 Gamma=0 Delta=0 Eta=0 Theta=0 Kappa=0.2 Vmax=0 Xj=0
Tox=2u Uo=300 Phi=.6 Kp=516.1n W=4.3 L=2u Rs=20m Vto=-1.855 Rd=.668 Rds=10MEG
Cgso=4p Cgdo=1p Cbd=421.9p Mj=.517 Pb=3 Fc=.5 Rg=277.2 Is=1f N=1 Rb=1m)
.model 2SJ132 PMOS (Level=3 Gamma=0 Delta=0 Eta=0 Theta=0 Kappa=0.2 Vmax=0 Xj=0
Tox=2u Uo=300 Phi=.6 Kp=514.6n W=4.9 L=2u Rs=20m Vto=-2.035 Rd=.1321 Rds=3MEG
Cgso=4p Cgdo=1p Cbd=683.2p Mj=.4219 Pb=.871 Fc=.5 Rg=466.9 Is=10E-21 N=.5602 Rb=0)
.model 2SJ133 PMOS (Level=3 Gamma=0 Delta=0 Eta=0 Theta=0 Kappa=0.2 Vmax=0 Xj=0
Tox=2u Uo=300 Phi=.6 Kp=20u W=.5 L=2u Rs=20m Vto=-3 Rd=10m Rds=1MEG Cgso=4p Cgdo=1p
Cbd=1n Mj=.5 Pb=.8 Fc=.5 Rg=5 Is=10f N=1 Rb=1m)
.model 2SJ134 PMOS (Level=3 Gamma=0 Delta=0 Eta=0 Theta=0 Kappa=0.2 Vmax=0 Xj=0
Tox=2u Uo=300 Phi=.6 Kp=1u W=3.6 L=2u Rs=20m Vto=-1.354 Rd=.1679 Rds=10MEG Cgso=4p
Cgdo=1p Cbd=1.54n Mj=.451 Pb=.4295 Fc=.5 Rg=160.6 Is=7.133f N=1 Rb=10m)
.model 2SJ135 PMOS (Level=3 Gamma=0 Delta=0 Eta=0 Theta=0 Kappa=0.2 Vmax=0 Xj=0
Tox=2u Uo=300 Phi=.6 Kp=516.5n W=7.819 L=2u Rs=0 Vto=-1.774 Rd=.25 Rds=10MEG
Cgso=4p Cgdo=1p Cbd=2.055n Mj=.5093 Pb=.3905 Fc=.5 Rg=138.1 Is=1f N=1 Rb=1m)
.model 2SJ136 PMOS (Level=3 Gamma=0 Delta=0 Eta=0 Theta=0 Kappa=0.2 Vmax=0 Xj=0
Tox=2u Uo=300 Phi=.6 Kp=5u W=1 L=2u Rs=10m Vto=-2.021 Rd=.1245 Rds=6MEG Cgso=4p
Cgdo=1p Cbd=1.506n Mj=.4641 Pb=.6857 Fc=.5 Rg=440 Is=10E-21 N=.15 Rb=0)
.model 2SJ137 PMOS (Level=3 Gamma=0 Delta=0 Eta=0 Theta=0 Kappa=0.2 Vmax=0 Xj=0
Tox=2u Uo=300 Phi=.6 Kp=516.9n W=6.1 L=2u Rs=20m Vto=-2.278 Rd=.1206 Rds=6MEG
Cgso=4p Cgdo=1p Cbd=1.49n Mj=.4681 Pb=.7277 Fc=.5 Rg=698.4 Is=1f N=1 Rb=10m)
.model 2SJ140 PMOS (Level=3 Gamma=0 Delta=0 Eta=0 Theta=0 Kappa=0.2 Vmax=0 Xj=0
Tox=2u Uo=300 Phi=.6 Kp=1.3u W=4.8 L=2u Rs=10m Vto=-1.141 Rd=61.99m Rds=6MEG
Cgso=4p Cgdo=1p Cbd=1.454n Mj=.5248 Pb=2.203 Fc=.5 Rg=249.2 Is=1f N=1 Rb=10m)
.model 2SJ141 PMOS (Level=3 Gamma=0 Delta=0 Eta=0 Theta=0 Kappa=0.2 Vmax=0 Xj=0
Tox=2u Uo=300 Phi=.6 Kp=503.8n W=17 L=2u Rs=20m Vto=-1.599 Rd=89.74m Rds=6MEG
Cgso=4p Cgdo=1p Cbd=1.455n Mj=.5 Pb=1.953 Fc=.5 Rg=158.8 Is=1f N=1 Rb=29.8m)
.model 2SJ142 PMOS (Level=3 Gamma=0 Delta=0 Eta=0 Theta=0 Kappa=0.2 Vmax=0 Xj=0
Tox=2u Uo=300 Phi=.6 Kp=509.6n W=18 L=2u Rs=20m Vto=-1.518 Rd=.1027 Rds=10MEG
Cgso=4p Cgdo=1p Cbd=1.516n Mj=.5465 Pb=2.779 Fc=.5 Rg=131.9 Is=1f N=1 Rb=21.7m)
.model 2SJ143 PMOS (Level=3 Gamma=0 Delta=0 Eta=0 Theta=0 Kappa=0.2 Vmax=0 Xj=0
Tox=2u Uo=300 Phi=.6 Kp=507.9n W=19 L=2u Rs=20m Vto=-1.547 Rd=64.85m Rds=6MEG
Cgso=4p Cgdo=1p Cbd=2.168n Mj=.5197 Pb=1.199 Fc=.5 Rg=140.7 Is=1f N=1 Rb=10m)
.model 2SJ162 PMOS (VTO=842.193M KP=20U L=2U W=21.3317M GAMMA=0 PHI=600M
LAMBDA=20.7067M RD=837.199M CBD=2.96862N IS=10F CGSO=1.13517N CGDO=1.13517N TOX=0
NSUB=0 TPG=1 UO=600 RG=50 RDS=1MEG)
.model 2SJ162C VDMOS (pchan Vto=-0.08 Kp=0.6 Lambda=0.1 Rs=0.55 Rd=0.1 Rds=1e7
Cgdmax=215p Cgdmin=10p a=0.25 Cgs=900p Cjo=1200p m=0.7 VJ=2.5 IS=4.0E-06 N=2.4)
.model 2SJ201C VDMOS (pchan Vto=-1.5 Kp=4.5 Lambda=0.002 Rs=0.04 Rd=0.1 Rds=1e7
Cgdmax=3100p Cgdmin=55p a=0.34 Cgs=1500p Cjo=2800p m=0.68 VJ=2.5 IS=4.0E-06 N=2.4)
.model 2SK134C VDMOS (nchan Vto=0.02 Kp=0.85 Lambda=0.02 Rs=0.62 Rd=0.1 Rds=1e7
Cgdmax=100p Cgdmin=5p a=0.25 Cgs=600p Cjo=1080p m=0.7 VJ=2.5 IS=4.0E-06 N=2.4)
.model 2SK175 NMOS (LEVEL=3 L=2.000E-6 W=.62 KP=1.037E-6 RS=10.00E-3 RD=1.000E-3
VTO=-.2321 RDS=6.000E6 TOX=2.000E-6 CGSO=40.00E-12 CGDO=10.00E-12 CBD=2.184E-9
RG=188.1 RB=1.000E-3 GAMMA=0 KAPPA=0)
.model 2SK176 NMOS (LEVEL=3 L=2.000E-6 W=.62 KP=1.037E-6 RS=10.00E-3 RD=1.000E-3
VTO=-.2321 RDS=6.000E6 TOX=2.000E-6 CGSO=40.00E-12 CGDO=10.00E-12 CBD=2.184E-9
RG=188.1 RB=1.000E-3 GAMMA=0 KAPPA=0)
.model 2SK241 NMOS (Level=1 Xj=0 Rd=25 Rs=25 Rg=50 Kp=10m Vto=-1.50 Mj=.5 Fc=.5
Cbd=3p Cbs=3p Cgso=3.0p Cgdo=0.04p)
.model 2SK294 NMOS (Level=3 Gamma=0 Delta=0 Eta=0 Theta=0 Kappa=0.2 Vmax=0 Xj=0
Tox=2u Uo=600 Phi=.6 Kp=2.77u W=.3 L=2u Rs=20m Vto=4.613 Rd=10E-21 Rds=65K
Cgso=921.2p Cgdo=470.2p Cbd=611.3p Mj=.8603 Pb=3 Fc=.5 Rg=16.22 Is=1f N=1 Rb=10m)
.model 2SK295 NMOS (Level=3 Gamma=0 Delta=0 Eta=0 Theta=0 Kappa=0.2 Vmax=0 Xj=0
Tox=2u Uo=600 Phi=.6 Kp=2.77u W=.3 L=2u Rs=20m Vto=4.613 Rd=10E-21 Rds=80K
Cgso=921.2p Cgdo=470.2p Cbd=611.3p Mj=.8603 Pb=3 Fc=.5 Rg=16.22 Is=1f N=1 Rb=10m)
.model 2SK298 NMOS (Level=3 Gamma=0 Delta=0 Eta=0 Theta=0 Kappa=0.2 Vmax=0 Xj=0
Tox=2u Uo=600 Phi=.6 Kp=1.038u W=1.36 L=2u Rs=20m Vto=3.394 Rd=1.5 Rds=320K
Cgso=547.2p Cgdo=34.64p Cbd=878.2p Mj=.9427 Pb=1.451 Fc=.5 Rg=28.43 Is=1f N=1
Rb=1m)
.model 2SK299 NMOS (Level=3 Gamma=0 Delta=0 Eta=0 Theta=0 Kappa=0.2 Vmax=0 Xj=0
Tox=2u Uo=600 Phi=.6 Kp=1.038u W=1.36 L=2u Rs=20m Vto=3.394 Rd=1.5 Rds=360K
Cgso=547.2p Cgdo=34.64p Cbd=878.2p Mj=.9427 Pb=1.451 Fc=.5 Rg=28.43 Is=1f N=1
Rb=1m)
.model 2SK312 NMOS (Level=3 Gamma=0 Delta=0 Eta=0 Theta=0 Kappa=0.2 Vmax=0 Xj=0
Tox=2u Uo=600 Phi=.6 Kp=1.032u W=1.861 L=2u Rs=20m Vto=3.355 Rd=.4766 Rds=320K
Cgso=734.4p Cgdo=45.33p Cbd=1.011n Mj=.8782 Pb=3 Fc=.5 Rg=27.69 Is=10f N=1 Rb=1m)
.model 2SK313 NMOS (Level=3 Gamma=0 Delta=0 Eta=0 Theta=0 Kappa=0.2 Vmax=0 Xj=0
Tox=2u Uo=600 Phi=.6 Kp=1.032u W=1.861 L=2u Rs=20m Vto=3.355 Rd=.4766 Rds=360K
Cgso=734.4p Cgdo=45.33p Cbd=1.011n Mj=.8782 Pb=3 Fc=.5 Rg=27.69 Is=10f N=1 Rb=1m)
.model 2SK317 NMOS (LEVEL=3 L=2.000E-6 W=.62 KP=1.030E-6 RS=10.00E-3 RD=7.890
VTO=1.062 RDS=6.000E6 TOX=2.000E-6 CGSO=40.00E-12 CGDO=10.00E-12 CBD=673.6E-12
RG=441.3 RB=1.000E-3 GAMMA=0 KAPPA=0)
.model 2SK318 NMOS (LEVEL=3 L=2.000E-6 W=.27 KP=1.045E-6 RS=10.00E-3 RD=1.000E-3
VTO=.6402 RDS=140.0E3 TOX=2.000E-6 CGSO=40.00E-12 CGDO=10.00E-12 CBD=339.6E-12
RG=1.031E3 RB=1.000E-3 GAMMA=0 KAPPA=0)
.model 2SK324 NMOS (Level=3 Gamma=0 Delta=0 Eta=0 Theta=0 Kappa=0.2 Vmax=0 Xj=0
Tox=2u Uo=600 Phi=.6 Kp=1.032u W=5.814 L=2u Rs=20m Vto=3 Rd=.3808 Rds=400K Cgso=4p
Cgdo=1p Cbd=4.051n Mj=.6788 Pb=.3905 Fc=.5 Rg=217.8 Is=1f N=1 Rb=0)
.model 2SK325 NMOS (Level=3 Gamma=0 Delta=0 Eta=0 Theta=0 Kappa=0.2 Vmax=0 Xj=0
Tox=2u Uo=600 Phi=.6 Kp=1.032u W=5.814 L=2u Rs=20m Vto=3 Rd=.4308 Rds=450K Cgso=4p
Cgdo=1p Cbd=4.051n Mj=.6788 Pb=.3905 Fc=.5 Rg=217.8 Is=1f N=1 Rb=0)
.model 2SK355 NMOS (Level=3 Gamma=0 Delta=0 Eta=0 Theta=0 Kappa=0.2 Vmax=0 Xj=0
Tox=2u Uo=600 Phi=.6 Kp=1.033u W=4.8 L=2u Rs=20m Vto=2.61 Rd=41.65m Rds=150K
Cgso=4p Cgdo=1p Cbd=13.06n Mj=.8104 Pb=.3905 Fc=.5 Rg=560 Is=69.88u N=2.719 Rb=0)
.model 2SK356 NMOS (Level=3 Gamma=0 Delta=0 Eta=0 Theta=0 Kappa=0.2 Vmax=0 Xj=0
Tox=2u Uo=600 Phi=.6 Kp=1.029u W=6.608 L=2u Rs=20m Vto=2.936 Rd=.1469 Rds=250K
Cgso=4p Cgdo=1p Cbd=5.911n Mj=.686 Pb=.3905 Fc=.5 Rg=341.8 Is=1f N=1 Rb=1m)
.model 2SK357 NMOS (Level=3 Gamma=0 Delta=0 Eta=0 Theta=0 Kappa=0.2 Vmax=0 Xj=0
Tox=2u Uo=600 Phi=.6 Kp=1.039u W=1.3 L=2u Rs=20m Vto=3.675 Rd=.3286 Rds=150K
Cgso=4p Cgdo=1p Cbd=853.7p Mj=.9921 Pb=3 Fc=.5 Rg=0 Is=10f N=1 Rb=1m)
.model 2SK358 NMOS (Level=3 Gamma=0 Delta=0 Eta=0 Theta=0 Kappa=0.2 Vmax=0 Xj=0
Tox=2u Uo=600 Phi=.6 Kp=1.01u W=1.1 L=2u Rs=20m Vto=2.174 Rd=.4368 Rds=250K Cgso=4p
Cgdo=1p Cbd=4.016n Mj=.8712 Pb=.3905 Fc=.5 Rg=421.6 Is=1f N=1 Rb=10m)
.model 2SK385 NMOS (Level=3 Gamma=0 Delta=0 Eta=0 Theta=0 Kappa=0.2 Vmax=0 Xj=0
Tox=2u Uo=600 Phi=.6 Kp=1.043u W=5.626 L=2u Rs=20m Vto=2.978 Rd=.6 Rds=400K Cgso=4p
Cgdo=1p Cbd=2.827n Mj=.5824 Pb=.3905 Fc=.5 Rg=207.8 Is=10f N=1 Rb=1m)
.model 2SK386 NMOS (Level=3 Gamma=0 Delta=0 Eta=0 Theta=0 Kappa=0.2 Vmax=0 Xj=0
Tox=2u Uo=600 Phi=.6 Kp=1.043u W=5.626 L=2u Rs=20m Vto=2.978 Rd=.6 Rds=450K Cgso=4p
Cgdo=1p Cbd=2.828n Mj=.5824 Pb=.3905 Fc=.5 Rg=207.8 Is=10f N=1 Rb=1m)
.model 2SK387 NMOS (Level=3 Gamma=0 Delta=0 Eta=0 Theta=0 Kappa=0.2 Vmax=0 Xj=0
Tox=2u Uo=600 Phi=.6 Kp=7.547u W=1 L=2u Rs=20m Vto=3.262 Rd=56.16m Rds=150K Cgso=4p
Cgdo=1p Cbd=10.36n Mj=.7514 Pb=.3905 Fc=.5 Rg=549.9 Is=2.04u N=1.993 Rb=6.334m)
.model 2SK388 NMOS (Level=3 Gamma=0 Delta=0 Eta=0 Theta=0 Kappa=0.2 Vmax=0 Xj=0
Tox=2u Uo=600 Phi=.6 Kp=1.023u W=5.701 L=2u Rs=20m Vto=2.919 Rd=.1379 Rds=250K
Cgso=4p Cgdo=1p Cbd=4.511n Mj=.6212 Pb=.3905 Fc=.5 Rg=255.8 Is=1f N=1 Rb=1m)
.model 2SK405 NMOS (LEVEL=3 L=2.000E-6 W=1.900 KP=1.018E-6 RS=10.00E-3 RD=11.37
VTO=.9547 RDS=6.000E6 TOX=2.000E-6 CGSO=40.00E-12 CGDO=10.00E-12 CBD=893.7E-12
RG=123.9 RB=1.000E-3 GAMMA=0 KAPPA=0)
.model 2SK408 NMOS (Level=3 Gamma=0 Delta=0 Eta=0.00 Theta=1 Kappa=0 Vmax=0 Xj=0
Rd=2.5 Rs=2.5 Rg=5 Kp=25u l=2u W=1 Tox=700n Uo=600 Phi=.6 Vto=1.700 Pb=.8 Mj=.5
Fc=.5 Cbd=200p Cbs=200p Cgso=0.3p Cgdo=0.2p Is=6E-18)
.model 2SK420 NMOS (Level=3 Gamma=0 Delta=0 Eta=0 Theta=0 Kappa=0.2 Vmax=0 Xj=0
Tox=2u Uo=600 Phi=.6 Kp=1.042u W=2 L=2u Rs=20m Vto=2.5 Rd=.8474 Rds=400K Cgso=4p
Cgdo=1p Cbd=654.2p Mj=.5 Pb=.8 Fc=.5 Rg=220.4 Is=10f N=1 Rb=1m)
.model 2SK440 NMOS (Level=3 Gamma=0 Delta=0 Eta=0 Theta=0 Kappa=0.2 Vmax=0 Xj=0
Tox=2u Uo=600 Phi=.6 Kp=1.034u W=2.073 L=2u Rs=20m Vto=3.634 Rd=.2966 Rds=160K
Cgso=379.8p Cgdo=36.09p Cbd=692.8p Mj=.7016 Pb=2.677 Fc=.5 Rg=14.37 Is=1f N=1
Rb=10m)
.model 2SK442 NMOS (Level=3 Gamma=0 Delta=0 Eta=0 Theta=0 Kappa=0.2 Vmax=0 Xj=0
Tox=2u Uo=600 Phi=.6 Kp=1.015u W=1.2 L=2u Rs=20m Vto=1.626 Rd=10m Rds=70K Cgso=4p
Cgdo=1p Cbd=1.349n Mj=.4534 Pb=.3905 Fc=.5 Rg=845.4 Is=10f N=1 Rb=1m)
.model 2SK447 NMOS (LEVEL=3 L=2.000E-6 W=3.200 KP=1.025E-6 RS=10.00E-3 RD=1.000E-3
VTO=2.625 RDS=250.0E3 TOX=2.000E-6 CGSO=40.00E-12 CGDO=10.00E-12 CBD=1.000E-9
RG=172 RB=1.000E-3 GAMMA=0 KAPPA=0)
.model 2SK459 NMOS (Level=3 Gamma=0 Delta=0 Eta=0 Theta=0 Kappa=0.2 Vmax=0 Xj=0
Tox=2u Uo=600 Phi=.6 Kp=1.04u W=3.2 L=2u Rs=30m Vto=3.777 Rd=.28 Rds=2MEG Cgso=4p
Cgdo=1p Cbd=1.408n Mj=.504 Pb=.3905 Fc=.5 Rg=108.1 Is=1f N=1 Rb=0)
.model 2SK479 NMOS (Level=3 Gamma=0 Delta=0 Eta=0 Theta=0 Kappa=0.2 Vmax=0 Xj=0
Tox=2u Uo=600 Phi=.6 Kp=1.023u W=3.5 L=2u Rs=20m Vto=4.365 Rd=.146 Rds=2.5MEG
Cgso=4p Cgdo=1p Cbd=3.198n Mj=.5308 Pb=.3905 Fc=.5 Rg=146.2 Is=1f N=1 Rb=1m)
.model 2SK512 NMOS (Level=3 Gamma=0 Delta=0 Eta=0 Theta=0 Kappa=0.2 Vmax=0 Xj=0
Tox=2u Uo=600 Phi=.6 Kp=1.051u W=1.9 L=2u Rs=20m Vto=2.169 Rd=.6 Rds=400K
Cgso=778.4p Cgdo=58.42p Cbd=4.202n Mj=.8174 Pb=.3905 Fc=.5 Rg=12.39 Is=1f N=1
Rb=1m)
.model 2SK513 NMOS (Level=3 Gamma=0 Delta=0 Eta=0 Theta=0 Kappa=0.2 Vmax=0 Xj=0
Tox=2u Uo=600 Phi=.6 Kp=1.048u W=.4324 L=2u Rs=20m Vto=2.515 Rd=4.615 Rds=640K
Cgso=1.084n Cgdo=89.28p Cbd=433.5p Mj=1.096 Pb=3 Fc=.5 Rg=43.89 Is=10f N=1 Rb=1m)
.model 2SK525 NMOS (Level=3 Gamma=0 Delta=0 Eta=0 Theta=0 Kappa=0.2 Vmax=0 Xj=0
Tox=2u Uo=600 Phi=.6 Kp=1.028u W=2.3 L=2u Rs=20m Vto=2.851 Rd=52.46m Rds=150K
Cgso=4p Cgdo=1p Cbd=1.813n Mj=.4965 Pb=.3905 Fc=.5 Rg=667.3 Is=10E-21 N=.5457 Rb=0)
.model 2SK526 NMOS (Level=3 Gamma=0 Delta=0 Eta=0 Theta=0 Kappa=0.2 Vmax=0 Xj=0
Tox=2u Uo=600 Phi=.6 Kp=1.047u W=2.6 L=2u Rs=20m Vto=2.26 Rd=.2831 Rds=250K Cgso=4p
Cgdo=1p Cbd=1.489n Mj=.5048 Pb=.3905 Fc=.5 Rg=357.9 Is=1f N=1 Rb=1m)
.model 2SK528 NMOS (Level=3 Gamma=0 Delta=0 Eta=0 Theta=0 Kappa=0.2 Vmax=0 Xj=0
Tox=2u Uo=600 Phi=.6 Kp=1.045u W=1.7 L=2u Rs=20m Vto=2.94 Rd=1.709 Rds=400K Cgso=4p
Cgdo=1p Cbd=739.6p Mj=.5559 Pb=.3905 Fc=.5 Rg=297 Is=1f N=1 Rb=1m)
.model 2SK529 NMOS (Level=3 Gamma=0 Delta=0 Eta=0 Theta=0 Kappa=0.2 Vmax=0 Xj=0
Tox=2u Uo=600 Phi=.6 Kp=1.008u W=1.6 L=2u Rs=20m Vto=2.609 Rd=1.807 Rds=450K
Cgso=4p Cgdo=1p Cbd=656p Mj=.5263 Pb=.3905 Fc=.5 Rg=286.9 Is=1f N=1 Rb=1m)
.model 2SK530 NMOS (Level=3 Gamma=0 Delta=0 Eta=0 Theta=0 Kappa=0.2 Vmax=0 Xj=0
Tox=2u Uo=600 Phi=.6 Kp=1.07u W=1.5 L=2u Rs=20m Vto=2.108 Rd=1.029 Rds=400K Cgso=4p
Cgdo=1p Cbd=1.126n Mj=.5636 Pb=.3905 Fc=.5 Rg=269.5 Is=1f N=1 Rb=0)
.model 2SK531 NMOS (Level=3 Gamma=0 Delta=0 Eta=0 Theta=0 Kappa=0.2 Vmax=0 Xj=0
Tox=2u Uo=600 Phi=.6 Kp=1.05u W=1.7 L=2u Rs=20m Vto=2.5 Rd=1.112 Rds=450K Cgso=4p
Cgdo=1p Cbd=910.4p Mj=.5601 Pb=.5434 Fc=.5 Rg=265.5 Is=10f N=1 Rb=1m)
.model 2SK532 NMOS (Level=3 Gamma=0 Delta=0 Eta=0 Theta=0 Kappa=0.2 Vmax=0 Xj=0
Tox=2u Uo=600 Phi=.6 Kp=1.026u W=4.179 L=2u Rs=0 Vto=2.634 Rd=10E-21 Rds=60K
Cgso=4p Cgdo=1p Cbd=6.316n Mj=.5629 Pb=.3905 Fc=.5 Rg=1.084K Is=10f N=1 Rb=1m)
.model 2SK534 NMOS (Level=3 Gamma=0 Delta=0 Eta=0 Theta=0 Kappa=0.2 Vmax=0 Xj=0
Tox=2u Uo=600 Phi=.6 Kp=1.04u W=1.066 L=2u Rs=20m Vto=2.876 Rd=3.009 Rds=640K
Cgso=968.9p Cgdo=50.32p Cbd=567.8p Mj=.749 Pb=3 Fc=.5 Rg=38.61 Is=1f N=1 Rb=10m)
.model 2SK535 NMOS (Level=3 Gamma=0 Delta=0 Eta=0 Theta=0 Kappa=0.2 Vmax=0 Xj=0
Tox=2u Uo=600 Phi=.6 Kp=1.029u W=.5131 L=2u Rs=20m Vto=3.174 Rd=3.398 Rds=3.2MEG
Cgso=887.8p Cgdo=59.23p Cbd=269.3n Mj=.4851 Pb=.3905 Fc=.5 Rg=8.749 Is=10f N=1
Rb=1m)
.model 2SK538 NMOS (Level=3 Gamma=0 Delta=0 Eta=0 Theta=0 Kappa=0.2 Vmax=0 Xj=0
Tox=2u Uo=600 Phi=.6 Kp=1.03u W=.67 L=2u Rs=20m Vto=2.47 Rd=2.993 Rds=3MEG Cgso=4p
Cgdo=1p Cbd=3.236n Mj=.8032 Pb=.3905 Fc=.5 Rg=1.264K Is=1f N=1 Rb=1m)
.model 2SK539 NMOS (Level=3 Gamma=0 Delta=0 Eta=0 Theta=0 Kappa=0.2 Vmax=0 Xj=0
Tox=2u Uo=600 Phi=.6 Kp=1.054u W=1.9 L=2u Rs=20m Vto=3.46 Rd=2.187 Rds=3MEG Cgso=4p
Cgdo=1p Cbd=2.025n Mj=.566 Pb=.3905 Fc=.5 Rg=827.9 Is=1f N=1 Rb=10m)
.model 2Sk542 NMOS (Level=3 Gamma=0 Delta=0 Eta=0 Theta=0 Kappa=0.2 Vmax=0 Xj=0
Tox=2u Uo=600 Phi=.6 Kp=1.031u W=.75 L=2u Rs=5m Vto=2.576 Rd=.6667 Rds=3MEG Cgso=4p
Cgdo=1p Cbd=432.6p Mj=.4509 Pb=.3905 Fc=.5 Rg=921.8 Is=1f N=1 Rb=1m)
.model 2SK568 NMOS (Level=3 Gamma=0 Delta=0 Eta=0 Theta=0 Kappa=0.2 Vmax=0 Xj=0
Tox=2u Uo=600 Phi=.6 Kp=1.036u W=5.1 L=2u Rs=20m Vto=2.947 Rd=.3 Rds=450K Cgso=4p
Cgdo=1p Cbd=8.862n Mj=1.185 Pb=3 Fc=.5 Rg=226.4 Is=1f N=1 Rb=0)
.model 2SK578 NMOS (Level=3 Gamma=0 Delta=0 Eta=0 Theta=0 Kappa=0.2 Vmax=0 Xj=0
Tox=2u Uo=600 Phi=.6 Kp=1.021u W=4.2 L=2u Rs=20m Vto=2.511 Rd=60m Rds=150K Cgso=4p
Cgdo=1p Cbd=14.53n Mj=.8791 Pb=.3905 Fc=.5 Rg=535.1 Is=10.01E-21 N=.5105 Rb=0)
.model 2SK591 NMOS (Level=3 Gamma=0 Delta=0 Eta=0 Theta=0 Kappa=0.2 Vmax=0 Xj=0
Tox=2u Uo=600 Phi=.6 Kp=1.036u W=19.71 L=2u Rs=0 Vto=1.687 Rd=21.58m Rds=6MEG
Cgso=4p Cgdo=1p Cbd=3.208n Mj=.6787 Pb=1.37 Fc=.5 Rg=455.2 Is=636.8E-18 N=.7423
Rb=2.376m)
.model 2SK611Z NMOS (Level=3 Gamma=0 Delta=0 Eta=0 Theta=0 Kappa=0.2 Vmax=0 Xj=0
Tox=2u Uo=600 Phi=.6 Kp=1.039u W=.28 L=2u Rs=20m Vto=1.696 Rd=3 Rds=8MEG Cgso=4p
Cgdo=1p Cbd=83.4p Mj=.3846 Pb=.3905 Fc=.5 Rg=455.5 Is=10f N=1 Rb=1m)
.model 2SK612Z NMOS (Level=3 Gamma=0 Delta=0 Eta=0 Theta=0 Kappa=0.2 Vmax=0 Xj=0
Tox=2u Uo=600 Phi=.6 Kp=1.029u W=7 L=2u Rs=20m Vto=1.931 Rd=.2391 Rds=8MEG Cgso=4p
Cgdo=1p Cbd=621.6p Mj=.4897 Pb=.3905 Fc=.5 Rg=92.25 Is=10f N=1 Rb=1m)
.model 2SK643 NMOS (Level=3 Gamma=0 Delta=0 Eta=0 Theta=0 Kappa=0.2 Vmax=0 Xj=0
Tox=2u Uo=600 Phi=.6 Kp=1.042u W=5.989 L=2u Rs=10m Vto=3.34 Rd=.5397 Rds=1.5MEG
Cgso=795.9p Cgdo=15.87p Cbd=21.2n Mj=1.2 Pb=.3905 Fc=.5 Rg=0 Is=1f N=1 Rb=1m)
.model 2SK654 NMOS (Level=3 Gamma=0 Delta=0 Eta=0 Theta=0 Kappa=0.2 Vmax=0 Xj=0
Tox=2u Uo=600 Phi=.6 Kp=1.033u W=1.2 L=2u Rs=20m Vto=1.516 Rd=1.013 Rds=8MEG
Cgso=4p Cgdo=1p Cbd=2.316n Mj=.5371 Pb=.3905 Fc=.5 Rg=104.8 Is=10f N=1 Rb=1m)
.model 2SK659 NMOS (Level=3 Gamma=0 Delta=0 Eta=0 Theta=0 Kappa=0.2 Vmax=0 Xj=0
Tox=2u Uo=600 Phi=.6 Kp=1.052u W=14.29 L=2u Rs=20m Vto=.5683 Rd=10E-21 Rds=6MEG
Cgso=4p Cgdo=1p Cbd=2.675n Mj=.4672 Pb=.3905 Fc=.5 Rg=102.8 Is=10f N=1 Rb=1m)
.model 2SK678 NMOS (Level=3 Gamma=0 Delta=0 Eta=0 Theta=0 Kappa=0.2 Vmax=0 Xj=0
Tox=2u Uo=600 Phi=.6 Kp=1.052u W=11 L=2u Rs=20m Vto=3 Rd=.2745 Rds=1.667MEG
Cgso=792p Cgdo=7.979p Cbd=3.355n Mj=.5 Pb=.8 Fc=.5 Rg=0 Is=1f N=1 Rb=1m)
.model 2SK679 NMOS (LEVEL=3 L=2.000E-6 W=1.400 KP=1.052E-6 RS=10.00E-3 RD=.1816
VTO=1.387 RDS=3.000E6 TOX=2.000E-6 CGSO=40.00E-12 CGDO=10.00E-12 CBD=155.2E-12
RG=730.7 RB=1.000E-3 GAMMA=0 KAPPA=0)
.model 2SK680 NMOS (LEVEL=3 L=2.000E-6 W=1.400 KP=1.052E-6 RS=10.00E-3 RD=.1816
VTO=1.387 RDS=3.000E6 TOX=2.000E-6 CGSO=40.00E-12 CGDO=10.00E-12 CBD=155.2E-12
RG=730.7 RB=1.000E-3 GAMMA=0 KAPPA=0)
.model 2SK681 NMOS (Level=3 Gamma=0 Delta=0 Eta=0 Theta=0 Kappa=0.2 Vmax=0 Xj=0
Tox=2u Uo=600 Phi=.6 Kp=1.036u W=1.137 L=2u Rs=5m Vto=1.864 Rd=.2834 Rds=2MEG
Cgso=4p Cgdo=1p Cbd=121.3p Mj=.3778 Pb=1.919 Fc=.5 Rg=15.47K Is=10E-21 N=.5305
Rb=6.066n)
.model 2SK693 NMOS (Level=3 Gamma=0 Delta=0 Eta=0 Theta=0 Kappa=0.2 Vmax=0 Xj=0
Tox=2u Uo=600 Phi=.6 Kp=1.052u W=11 L=2u Rs=20m Vto=3 Rd=.2745 Rds=1.5MEG
Cgso=791.1p Cgdo=8.868p Cbd=3.32n Mj=.5 Pb=.8 Fc=.5 Rg=0 Is=1f N=1 Rb=1m)
.model 2SK694 NMOS (Level=3 Gamma=0 Delta=0 Eta=0 Theta=0 Kappa=0.2 Vmax=0 Xj=0
Tox=2u Uo=600 Phi=.6 Kp=1.052u W=11 L=2u Rs=20m Vto=3 Rd=.3545 Rds=1.667MEG
Cgso=805.8p Cgdo=7.977p Cbd=3.355n Mj=.5 Pb=.8 Fc=.5 Rg=0 Is=1m N=1 Rb=1m)
.model 2SK700 NMOS (Level=3 Gamma=0 Delta=0 Eta=0 Theta=0 Kappa=0.2 Vmax=0 Xj=0
Tox=2u Uo=600 Phi=.6 Kp=1.02u W=1.831 L=2u Rs=0 Vto=1.465 Rd=.25 Rds=8MEG Cgso=4p
Cgdo=1p Cbd=201.8p Mj=.3661 Pb=.5733 Fc=.5 Rg=1.516K Is=10E-21 N=.5305 Rb=6.066n)
.model 2SK702 NMOS (Level=3 Gamma=0 Delta=0 Eta=0 Theta=0 Kappa=0.2 Vmax=0 Xj=0
Tox=2u Uo=600 Phi=.6 Kp=1.029u W=6 L=2u Rs=20m Vto=1.586 Rd=.4 Rds=10MEG Cgso=4p
Cgdo=1p Cbd=1.33n Mj=.524 Pb=.3905 Fc=.5 Rg=110.3 Is=1f N=1 Rb=10m)
.model 2SK703 NMOS (Level=3 Gamma=0 Delta=0 Eta=0 Theta=0 Kappa=0.2 Vmax=0 Xj=0
Tox=2u Uo=600 Phi=.6 Kp=1.036u W=6 L=2u Rs=20m Vto=1.384 Rd=.1587 Rds=10MEG Cgso=4p
Cgdo=1p Cbd=1.387n Mj=.5453 Pb=.3905 Fc=.5 Rg=117.1 Is=1f N=1 Rb=0)
.model 2SK704 NMOS (Level=3 Gamma=0 Delta=0 Eta=0 Theta=0 Kappa=0.2 Vmax=0 Xj=0
Tox=2u Uo=600 Phi=.6 Kp=1.029u W=4.666 L=2u Rs=40m Vto=1.292 Rd=17.4m Rds=6MEG
Cgso=4p Cgdo=1p Cbd=1.559n Mj=.4864 Pb=.4705 Fc=.5 Rg=284.6 Is=44.59p N=1.144
Rb=8.419m)
.model 2SK705 NMOS (Level=3 Gamma=0 Delta=0 Eta=0 Theta=0 Kappa=0.2 Vmax=0 Xj=0
Tox=2u Uo=600 Phi=.6 Kp=1.043u W=4.53 L=2u Rs=10m Vto=1.24 Rd=52.74m Rds=6MEG
Cgso=4p Cgdo=1p Cbd=1.783n Mj=.5017 Pb=.3905 Fc=.5 Rg=138.3 Is=1m N=.1 Rb=59.99m)
.model 2SK707 NMOS (Level=3 Gamma=0 Delta=0 Eta=0 Theta=0 Kappa=0.2 Vmax=0 Xj=0
Tox=2u Uo=600 Phi=.6 Kp=1.033u W=6.78 L=2u Rs=0 Vto=2.931 Rd=.1 Rds=2.5MEG Cgso=4p
Cgdo=1p Cbd=2.718n Mj=.7375 Pb=3 Fc=.5 Rg=241.9 Is=1f N=2 Rb=0)
.model 2SK719 NMOS (Level=3 Gamma=0 Delta=0 Eta=0 Theta=0 Kappa=0.2 Vmax=0 Xj=0
Tox=2u Uo=600 Phi=.6 Kp=1.058u W=2 L=2u Rs=20m Vto=2.72 Rd=2.975 Rds=9MEG Cgso=4p
Cgdo=1p Cbd=1.549n Mj=.6635 Pb=.3905 Fc=.5 Rg=181.9 Is=1f N=1 Rb=10m)
.model 2SK720A NMOS (Level=3 Gamma=0 Delta=0 Eta=0 Theta=0 Kappa=0.2 Vmax=0 Xj=0
Tox=2u Uo=600 Phi=.6 Kp=1.042u W=5.056 L=2u Rs=20m Vto=1.956 Rd=.1027 Rds=2.5MEG
Cgso=4p Cgdo=1p Cbd=3.089n Mj=.8391 Pb=1.904 Fc=.5 Rg=115.8 Is=1f N=1 Rb=1m)
.model 2SK732 NMOS (Level=3 Gamma=0 Delta=0 Eta=0 Theta=0 Kappa=0.2 Vmax=0 Xj=0
Tox=2u Uo=600 Phi=.6 Kp=1.057u W=2.3 L=2u Rs=20m Vto=3.418 Rd=.4302 Rds=450K
Cgso=605.2p Cgdo=58.36p Cbd=2.295n Mj=1.035 Pb=.714 Fc=.5 Rg=0 Is=10f N=1 Rb=0)